Circuit: * C:\Users\Max\ownCloud\Projekte\Dennis_LEDs_fuer_Trollclan\Elektronik\rev1\Draft1.asc

Direct Newton iteration for .op point succeeded.

Date: Wed Dec 05 21:01:24 2018
Total elapsed time: 0.020 seconds.

tnom = 27
temp = 27
method = trap
totiter = 3
traniter = 0
tranpoints = 0
accept = 0
rejected = 0
matrix size = 9
fillins = 1
solver = Normal
Matrix Compiler1:      20 opcodes
Matrix Compiler2: 707 bytes object code size
